PrimaProva/buses.csv
Bus ID,Voltage Level [kV],Load [MW],Load [MVAR],x_coord,y_coord
0,40,0.20,0.2,2,2
1,40,0.12,0.1,5,6
2,40,0.16,0.1,9,1
3,40,0.15,0.11,3,0
4,40,0.13,0.1,9,3
5,40,0.14,0.1,4,5
6,40,0.15,0.1,7,7
7,40,0.16,0.1,1,8
8,40,0.17,0.1,6,3
9,40,0.18,0.1,8,5
10,40,0.19,0.1,5,2
11,40,0.10,0.1,2,8
12,40,0.11,0.1,4,1
13,40,0.12,0.1,7,4
14,40,0.13,0.1,3,6
15,40,0.14,0.1,8,8
16,40,0.15,0.1,1,1
17,40,0.16,0.1,6,4
18,40,0.17,0.1,9,7

